**************************************************
* OpenRAM generated memory.
* Words: 1024
* Data bits: 32
* Banks: 1
* Column mux: 8:1
**************************************************
* File: DFFPOSX1.pex.netlist
* Created: Wed Jan  2 18:36:24 2008
* Program "Calibre xRC"
* Version "v2007.2_34.24"
*
.subckt dff D Q clk vdd gnd
*
MM21 Q a_66_6# gnd gnd NMOS_VTG L=5e-08 W=5e-07
MM19 a_76_6# a_2_6# a_66_6# gnd NMOS_VTG L=5e-08 W=2.5e-07
MM20 gnd Q a_76_6# gnd NMOS_VTG L=5e-08 W=2.5e-07
MM18 a_66_6# clk a_61_6# gnd NMOS_VTG L=5e-08 W=2.5e-07
MM17 a_61_6# a_34_4# gnd gnd NMOS_VTG L=5e-08 W=2.5e-07
MM10 gnd clk a_2_6# gnd NMOS_VTG L=5e-08 W=5e-07
MM16 a_34_4# a_22_6# gnd gnd NMOS_VTG L=5e-08 W=2.5e-07
MM15 gnd a_34_4# a_31_6# gnd NMOS_VTG L=5e-08 W=2.5e-07
MM14 a_31_6# clk a_22_6# gnd NMOS_VTG L=5e-08 W=2.5e-07
MM13 a_22_6# a_2_6# a_17_6# gnd NMOS_VTG L=5e-08 W=2.5e-07
MM12 a_17_6# D gnd gnd NMOS_VTG L=5e-08 W=2.5e-07
MM11 Q a_66_6# vdd vdd PMOS_VTG L=5e-08 W=1e-06
MM9 vdd Q a_76_84# vdd PMOS_VTG L=5e-08 W=2.5e-07
MM8 a_76_84# clk a_66_6# vdd PMOS_VTG L=5e-08 W=2.5e-07
MM7 a_66_6# a_2_6# a_61_74# vdd PMOS_VTG L=5e-08 W=5e-07
MM6 a_61_74# a_34_4# vdd vdd PMOS_VTG L=5e-08 W=5e-07
MM0 vdd clk a_2_6# vdd PMOS_VTG L=5e-08 W=1e-06
MM5 a_34_4# a_22_6# vdd vdd PMOS_VTG L=5e-08 W=5e-07
MM4 vdd a_34_4# a_31_74# vdd PMOS_VTG L=5e-08 W=5e-07
MM3 a_31_74# a_2_6# a_22_6# vdd PMOS_VTG L=5e-08 W=5e-07
MM2 a_22_6# clk a_17_74# vdd PMOS_VTG L=5e-08 W=5e-07
MM1 a_17_74# D vdd vdd PMOS_VTG L=5e-08 W=5e-07
* c_9 a_66_6# 0 0.271997f
* c_20 clk 0 0.350944f
* c_27 Q 0 0.202617f
* c_32 a_76_84# 0 0.0210573f
* c_38 a_76_6# 0 0.0204911f
* c_45 a_34_4# 0 0.172306f
* c_55 a_2_6# 0 0.283119f
* c_59 a_22_6# 0 0.157312f
* c_64 D 0 0.0816386f
* c_73 gnd 0 0.254131f
* c_81 vdd 0 0.23624f
*
*.include "dff.pex.netlist.dff.pxi"
*
.ends
*
*

.SUBCKT row_addr_dff din_0 din_1 din_2 din_3 din_4 din_5 din_6 dout_0 dout_1 dout_2 dout_3 dout_4 dout_5 dout_6 clk vdd gnd
* INPUT : din_0 
* INPUT : din_1 
* INPUT : din_2 
* INPUT : din_3 
* INPUT : din_4 
* INPUT : din_5 
* INPUT : din_6 
* OUTPUT: dout_0 
* OUTPUT: dout_1 
* OUTPUT: dout_2 
* OUTPUT: dout_3 
* OUTPUT: dout_4 
* OUTPUT: dout_5 
* OUTPUT: dout_6 
* INPUT : clk 
* POWER : vdd 
* GROUND: gnd 
* rows: 7 cols: 1
Xdff_r0_c0 din_0 dout_0 clk vdd gnd dff
Xdff_r1_c0 din_1 dout_1 clk vdd gnd dff
Xdff_r2_c0 din_2 dout_2 clk vdd gnd dff
Xdff_r3_c0 din_3 dout_3 clk vdd gnd dff
Xdff_r4_c0 din_4 dout_4 clk vdd gnd dff
Xdff_r5_c0 din_5 dout_5 clk vdd gnd dff
Xdff_r6_c0 din_6 dout_6 clk vdd gnd dff
.ENDS row_addr_dff

.SUBCKT col_addr_dff din_0 din_1 din_2 dout_0 dout_1 dout_2 clk vdd gnd
* INPUT : din_0 
* INPUT : din_1 
* INPUT : din_2 
* OUTPUT: dout_0 
* OUTPUT: dout_1 
* OUTPUT: dout_2 
* INPUT : clk 
* POWER : vdd 
* GROUND: gnd 
* rows: 1 cols: 3
Xdff_r0_c0 din_0 dout_0 clk vdd gnd dff
Xdff_r0_c1 din_1 dout_1 clk vdd gnd dff
Xdff_r0_c2 din_2 dout_2 clk vdd gnd dff
.ENDS col_addr_dff

.SUBCKT data_dff din_0 din_1 din_2 din_3 din_4 din_5 din_6 din_7 din_8 din_9 din_10 din_11 din_12 din_13 din_14 din_15 din_16 din_17 din_18 din_19 din_20 din_21 din_22 din_23 din_24 din_25 din_26 din_27 din_28 din_29 din_30 din_31 dout_0 dout_1 dout_2 dout_3 dout_4 dout_5 dout_6 dout_7 dout_8 dout_9 dout_10 dout_11 dout_12 dout_13 dout_14 dout_15 dout_16 dout_17 dout_18 dout_19 dout_20 dout_21 dout_22 dout_23 dout_24 dout_25 dout_26 dout_27 dout_28 dout_29 dout_30 dout_31 clk vdd gnd
* INPUT : din_0 
* INPUT : din_1 
* INPUT : din_2 
* INPUT : din_3 
* INPUT : din_4 
* INPUT : din_5 
* INPUT : din_6 
* INPUT : din_7 
* INPUT : din_8 
* INPUT : din_9 
* INPUT : din_10 
* INPUT : din_11 
* INPUT : din_12 
* INPUT : din_13 
* INPUT : din_14 
* INPUT : din_15 
* INPUT : din_16 
* INPUT : din_17 
* INPUT : din_18 
* INPUT : din_19 
* INPUT : din_20 
* INPUT : din_21 
* INPUT : din_22 
* INPUT : din_23 
* INPUT : din_24 
* INPUT : din_25 
* INPUT : din_26 
* INPUT : din_27 
* INPUT : din_28 
* INPUT : din_29 
* INPUT : din_30 
* INPUT : din_31 
* OUTPUT: dout_0 
* OUTPUT: dout_1 
* OUTPUT: dout_2 
* OUTPUT: dout_3 
* OUTPUT: dout_4 
* OUTPUT: dout_5 
* OUTPUT: dout_6 
* OUTPUT: dout_7 
* OUTPUT: dout_8 
* OUTPUT: dout_9 
* OUTPUT: dout_10 
* OUTPUT: dout_11 
* OUTPUT: dout_12 
* OUTPUT: dout_13 
* OUTPUT: dout_14 
* OUTPUT: dout_15 
* OUTPUT: dout_16 
* OUTPUT: dout_17 
* OUTPUT: dout_18 
* OUTPUT: dout_19 
* OUTPUT: dout_20 
* OUTPUT: dout_21 
* OUTPUT: dout_22 
* OUTPUT: dout_23 
* OUTPUT: dout_24 
* OUTPUT: dout_25 
* OUTPUT: dout_26 
* OUTPUT: dout_27 
* OUTPUT: dout_28 
* OUTPUT: dout_29 
* OUTPUT: dout_30 
* OUTPUT: dout_31 
* INPUT : clk 
* POWER : vdd 
* GROUND: gnd 
* rows: 1 cols: 32
Xdff_r0_c0 din_0 dout_0 clk vdd gnd dff
Xdff_r0_c1 din_1 dout_1 clk vdd gnd dff
Xdff_r0_c2 din_2 dout_2 clk vdd gnd dff
Xdff_r0_c3 din_3 dout_3 clk vdd gnd dff
Xdff_r0_c4 din_4 dout_4 clk vdd gnd dff
Xdff_r0_c5 din_5 dout_5 clk vdd gnd dff
Xdff_r0_c6 din_6 dout_6 clk vdd gnd dff
Xdff_r0_c7 din_7 dout_7 clk vdd gnd dff
Xdff_r0_c8 din_8 dout_8 clk vdd gnd dff
Xdff_r0_c9 din_9 dout_9 clk vdd gnd dff
Xdff_r0_c10 din_10 dout_10 clk vdd gnd dff
Xdff_r0_c11 din_11 dout_11 clk vdd gnd dff
Xdff_r0_c12 din_12 dout_12 clk vdd gnd dff
Xdff_r0_c13 din_13 dout_13 clk vdd gnd dff
Xdff_r0_c14 din_14 dout_14 clk vdd gnd dff
Xdff_r0_c15 din_15 dout_15 clk vdd gnd dff
Xdff_r0_c16 din_16 dout_16 clk vdd gnd dff
Xdff_r0_c17 din_17 dout_17 clk vdd gnd dff
Xdff_r0_c18 din_18 dout_18 clk vdd gnd dff
Xdff_r0_c19 din_19 dout_19 clk vdd gnd dff
Xdff_r0_c20 din_20 dout_20 clk vdd gnd dff
Xdff_r0_c21 din_21 dout_21 clk vdd gnd dff
Xdff_r0_c22 din_22 dout_22 clk vdd gnd dff
Xdff_r0_c23 din_23 dout_23 clk vdd gnd dff
Xdff_r0_c24 din_24 dout_24 clk vdd gnd dff
Xdff_r0_c25 din_25 dout_25 clk vdd gnd dff
Xdff_r0_c26 din_26 dout_26 clk vdd gnd dff
Xdff_r0_c27 din_27 dout_27 clk vdd gnd dff
Xdff_r0_c28 din_28 dout_28 clk vdd gnd dff
Xdff_r0_c29 din_29 dout_29 clk vdd gnd dff
Xdff_r0_c30 din_30 dout_30 clk vdd gnd dff
Xdff_r0_c31 din_31 dout_31 clk vdd gnd dff
.ENDS data_dff

* ptx M{0} {1} pmos_vtg m=1 w=0.27u l=0.05u pd=0.64u ps=0.64u as=0.03p ad=0.03p

.SUBCKT precharge_1 bl br en_bar vdd
* OUTPUT: bl 
* OUTPUT: br 
* INPUT : en_bar 
* POWER : vdd 
Mlower_pmos bl en_bar br vdd pmos_vtg m=1 w=0.27u l=0.05u pd=0.64u ps=0.64u as=0.03p ad=0.03p
Mupper_pmos1 bl en_bar vdd vdd pmos_vtg m=1 w=0.27u l=0.05u pd=0.64u ps=0.64u as=0.03p ad=0.03p
Mupper_pmos2 br en_bar vdd vdd pmos_vtg m=1 w=0.27u l=0.05u pd=0.64u ps=0.64u as=0.03p ad=0.03p
.ENDS precharge_1

.SUBCKT precharge_array_0 bl_0 br_0 bl_1 br_1 bl_2 br_2 bl_3 br_3 bl_4 br_4 bl_5 br_5 bl_6 br_6 bl_7 br_7 bl_8 br_8 bl_9 br_9 bl_10 br_10 bl_11 br_11 bl_12 br_12 bl_13 br_13 bl_14 br_14 bl_15 br_15 bl_16 br_16 bl_17 br_17 bl_18 br_18 bl_19 br_19 bl_20 br_20 bl_21 br_21 bl_22 br_22 bl_23 br_23 bl_24 br_24 bl_25 br_25 bl_26 br_26 bl_27 br_27 bl_28 br_28 bl_29 br_29 bl_30 br_30 bl_31 br_31 bl_32 br_32 bl_33 br_33 bl_34 br_34 bl_35 br_35 bl_36 br_36 bl_37 br_37 bl_38 br_38 bl_39 br_39 bl_40 br_40 bl_41 br_41 bl_42 br_42 bl_43 br_43 bl_44 br_44 bl_45 br_45 bl_46 br_46 bl_47 br_47 bl_48 br_48 bl_49 br_49 bl_50 br_50 bl_51 br_51 bl_52 br_52 bl_53 br_53 bl_54 br_54 bl_55 br_55 bl_56 br_56 bl_57 br_57 bl_58 br_58 bl_59 br_59 bl_60 br_60 bl_61 br_61 bl_62 br_62 bl_63 br_63 bl_64 br_64 bl_65 br_65 bl_66 br_66 bl_67 br_67 bl_68 br_68 bl_69 br_69 bl_70 br_70 bl_71 br_71 bl_72 br_72 bl_73 br_73 bl_74 br_74 bl_75 br_75 bl_76 br_76 bl_77 br_77 bl_78 br_78 bl_79 br_79 bl_80 br_80 bl_81 br_81 bl_82 br_82 bl_83 br_83 bl_84 br_84 bl_85 br_85 bl_86 br_86 bl_87 br_87 bl_88 br_88 bl_89 br_89 bl_90 br_90 bl_91 br_91 bl_92 br_92 bl_93 br_93 bl_94 br_94 bl_95 br_95 bl_96 br_96 bl_97 br_97 bl_98 br_98 bl_99 br_99 bl_100 br_100 bl_101 br_101 bl_102 br_102 bl_103 br_103 bl_104 br_104 bl_105 br_105 bl_106 br_106 bl_107 br_107 bl_108 br_108 bl_109 br_109 bl_110 br_110 bl_111 br_111 bl_112 br_112 bl_113 br_113 bl_114 br_114 bl_115 br_115 bl_116 br_116 bl_117 br_117 bl_118 br_118 bl_119 br_119 bl_120 br_120 bl_121 br_121 bl_122 br_122 bl_123 br_123 bl_124 br_124 bl_125 br_125 bl_126 br_126 bl_127 br_127 bl_128 br_128 bl_129 br_129 bl_130 br_130 bl_131 br_131 bl_132 br_132 bl_133 br_133 bl_134 br_134 bl_135 br_135 bl_136 br_136 bl_137 br_137 bl_138 br_138 bl_139 br_139 bl_140 br_140 bl_141 br_141 bl_142 br_142 bl_143 br_143 bl_144 br_144 bl_145 br_145 bl_146 br_146 bl_147 br_147 bl_148 br_148 bl_149 br_149 bl_150 br_150 bl_151 br_151 bl_152 br_152 bl_153 br_153 bl_154 br_154 bl_155 br_155 bl_156 br_156 bl_157 br_157 bl_158 br_158 bl_159 br_159 bl_160 br_160 bl_161 br_161 bl_162 br_162 bl_163 br_163 bl_164 br_164 bl_165 br_165 bl_166 br_166 bl_167 br_167 bl_168 br_168 bl_169 br_169 bl_170 br_170 bl_171 br_171 bl_172 br_172 bl_173 br_173 bl_174 br_174 bl_175 br_175 bl_176 br_176 bl_177 br_177 bl_178 br_178 bl_179 br_179 bl_180 br_180 bl_181 br_181 bl_182 br_182 bl_183 br_183 bl_184 br_184 bl_185 br_185 bl_186 br_186 bl_187 br_187 bl_188 br_188 bl_189 br_189 bl_190 br_190 bl_191 br_191 bl_192 br_192 bl_193 br_193 bl_194 br_194 bl_195 br_195 bl_196 br_196 bl_197 br_197 bl_198 br_198 bl_199 br_199 bl_200 br_200 bl_201 br_201 bl_202 br_202 bl_203 br_203 bl_204 br_204 bl_205 br_205 bl_206 br_206 bl_207 br_207 bl_208 br_208 bl_209 br_209 bl_210 br_210 bl_211 br_211 bl_212 br_212 bl_213 br_213 bl_214 br_214 bl_215 br_215 bl_216 br_216 bl_217 br_217 bl_218 br_218 bl_219 br_219 bl_220 br_220 bl_221 br_221 bl_222 br_222 bl_223 br_223 bl_224 br_224 bl_225 br_225 bl_226 br_226 bl_227 br_227 bl_228 br_228 bl_229 br_229 bl_230 br_230 bl_231 br_231 bl_232 br_232 bl_233 br_233 bl_234 br_234 bl_235 br_235 bl_236 br_236 bl_237 br_237 bl_238 br_238 bl_239 br_239 bl_240 br_240 bl_241 br_241 bl_242 br_242 bl_243 br_243 bl_244 br_244 bl_245 br_245 bl_246 br_246 bl_247 br_247 bl_248 br_248 bl_249 br_249 bl_250 br_250 bl_251 br_251 bl_252 br_252 bl_253 br_253 bl_254 br_254 bl_255 br_255 bl_256 br_256 en_bar vdd
* OUTPUT: bl_0 
* OUTPUT: br_0 
* OUTPUT: bl_1 
* OUTPUT: br_1 
* OUTPUT: bl_2 
* OUTPUT: br_2 
* OUTPUT: bl_3 
* OUTPUT: br_3 
* OUTPUT: bl_4 
* OUTPUT: br_4 
* OUTPUT: bl_5 
* OUTPUT: br_5 
* OUTPUT: bl_6 
* OUTPUT: br_6 
* OUTPUT: bl_7 
* OUTPUT: br_7 
* OUTPUT: bl_8 
* OUTPUT: br_8 
* OUTPUT: bl_9 
* OUTPUT: br_9 
* OUTPUT: bl_10 
* OUTPUT: br_10 
* OUTPUT: bl_11 
* OUTPUT: br_11 
* OUTPUT: bl_12 
* OUTPUT: br_12 
* OUTPUT: bl_13 
* OUTPUT: br_13 
* OUTPUT: bl_14 
* OUTPUT: br_14 
* OUTPUT: bl_15 
* OUTPUT: br_15 
* OUTPUT: bl_16 
* OUTPUT: br_16 
* OUTPUT: bl_17 
* OUTPUT: br_17 
* OUTPUT: bl_18 
* OUTPUT: br_18 
* OUTPUT: bl_19 
* OUTPUT: br_19 
* OUTPUT: bl_20 
* OUTPUT: br_20 
* OUTPUT: bl_21 
* OUTPUT: br_21 
* OUTPUT: bl_22 
* OUTPUT: br_22 
* OUTPUT: bl_23 
* OUTPUT: br_23 
* OUTPUT: bl_24 
* OUTPUT: br_24 
* OUTPUT: bl_25 
* OUTPUT: br_25 
* OUTPUT: bl_26 
* OUTPUT: br_26 
* OUTPUT: bl_27 
* OUTPUT: br_27 
* OUTPUT: bl_28 
* OUTPUT: br_28 
* OUTPUT: bl_29 
* OUTPUT: br_29 
* OUTPUT: bl_30 
* OUTPUT: br_30 
* OUTPUT: bl_31 
* OUTPUT: br_31 
* OUTPUT: bl_32 
* OUTPUT: br_32 
* OUTPUT: bl_33 
* OUTPUT: br_33 
* OUTPUT: bl_34 
* OUTPUT: br_34 
* OUTPUT: bl_35 
* OUTPUT: br_35 
* OUTPUT: bl_36 
* OUTPUT: br_36 
* OUTPUT: bl_37 
* OUTPUT: br_37 
* OUTPUT: bl_38 
* OUTPUT: br_38 
* OUTPUT: bl_39 
* OUTPUT: br_39 
* OUTPUT: bl_40 
* OUTPUT: br_40 
* OUTPUT: bl_41 
* OUTPUT: br_41 
* OUTPUT: bl_42 
* OUTPUT: br_42 
* OUTPUT: bl_43 
* OUTPUT: br_43 
* OUTPUT: bl_44 
* OUTPUT: br_44 
* OUTPUT: bl_45 
* OUTPUT: br_45 
* OUTPUT: bl_46 
* OUTPUT: br_46 
* OUTPUT: bl_47 
* OUTPUT: br_47 
* OUTPUT: bl_48 
* OUTPUT: br_48 
* OUTPUT: bl_49 
* OUTPUT: br_49 
* OUTPUT: bl_50 
* OUTPUT: br_50 
* OUTPUT: bl_51 
* OUTPUT: br_51 
* OUTPUT: bl_52 
* OUTPUT: br_52 
* OUTPUT: bl_53 
* OUTPUT: br_53 
* OUTPUT: bl_54 
* OUTPUT: br_54 
* OUTPUT: bl_55 
* OUTPUT: br_55 
* OUTPUT: bl_56 
* OUTPUT: br_56 
* OUTPUT: bl_57 
* OUTPUT: br_57 
* OUTPUT: bl_58 
* OUTPUT: br_58 
* OUTPUT: bl_59 
* OUTPUT: br_59 
* OUTPUT: bl_60 
* OUTPUT: br_60 
* OUTPUT: bl_61 
* OUTPUT: br_61 
* OUTPUT: bl_62 
* OUTPUT: br_62 
* OUTPUT: bl_63 
* OUTPUT: br_63 
* OUTPUT: bl_64 
* OUTPUT: br_64 
* OUTPUT: bl_65 
* OUTPUT: br_65 
* OUTPUT: bl_66 
* OUTPUT: br_66 
* OUTPUT: bl_67 
* OUTPUT: br_67 
* OUTPUT: bl_68 
* OUTPUT: br_68 
* OUTPUT: bl_69 
* OUTPUT: br_69 
* OUTPUT: bl_70 
* OUTPUT: br_70 
* OUTPUT: bl_71 
* OUTPUT: br_71 
* OUTPUT: bl_72 
* OUTPUT: br_72 
* OUTPUT: bl_73 
* OUTPUT: br_73 
* OUTPUT: bl_74 
* OUTPUT: br_74 
* OUTPUT: bl_75 
* OUTPUT: br_75 
* OUTPUT: bl_76 
* OUTPUT: br_76 
* OUTPUT: bl_77 
* OUTPUT: br_77 
* OUTPUT: bl_78 
* OUTPUT: br_78 
* OUTPUT: bl_79 
* OUTPUT: br_79 
* OUTPUT: bl_80 
* OUTPUT: br_80 
* OUTPUT: bl_81 
* OUTPUT: br_81 
* OUTPUT: bl_82 
* OUTPUT: br_82 
* OUTPUT: bl_83 
* OUTPUT: br_83 
* OUTPUT: bl_84 
* OUTPUT: br_84 
* OUTPUT: bl_85 
* OUTPUT: br_85 
* OUTPUT: bl_86 
* OUTPUT: br_86 
* OUTPUT: bl_87 
* OUTPUT: br_87 
* OUTPUT: bl_88 
* OUTPUT: br_88 
* OUTPUT: bl_89 
* OUTPUT: br_89 
* OUTPUT: bl_90 
* OUTPUT: br_90 
* OUTPUT: bl_91 
* OUTPUT: br_91 
* OUTPUT: bl_92 
* OUTPUT: br_92 
* OUTPUT: bl_93 
* OUTPUT: br_93 
* OUTPUT: bl_94 
* OUTPUT: br_94 
* OUTPUT: bl_95 
* OUTPUT: br_95 
* OUTPUT: bl_96 
* OUTPUT: br_96 
* OUTPUT: bl_97 
* OUTPUT: br_97 
* OUTPUT: bl_98 
* OUTPUT: br_98 
* OUTPUT: bl_99 
* OUTPUT: br_99 
* OUTPUT: bl_100 
* OUTPUT: br_100 
* OUTPUT: bl_101 
* OUTPUT: br_101 
* OUTPUT: bl_102 
* OUTPUT: br_102 
* OUTPUT: bl_103 
* OUTPUT: br_103 
* OUTPUT: bl_104 
* OUTPUT: br_104 
* OUTPUT: bl_105 
* OUTPUT: br_105 
* OUTPUT: bl_106 
* OUTPUT: br_106 
* OUTPUT: bl_107 
* OUTPUT: br_107 
* OUTPUT: bl_108 
* OUTPUT: br_108 
* OUTPUT: bl_109 
* OUTPUT: br_109 
* OUTPUT: bl_110 
* OUTPUT: br_110 
* OUTPUT: bl_111 
* OUTPUT: br_111 
* OUTPUT: bl_112 
* OUTPUT: br_112 
* OUTPUT: bl_113 
* OUTPUT: br_113 
* OUTPUT: bl_114 
* OUTPUT: br_114 
* OUTPUT: bl_115 
* OUTPUT: br_115 
* OUTPUT: bl_116 
* OUTPUT: br_116 
* OUTPUT: bl_117 
* OUTPUT: br_117 
* OUTPUT: bl_118 
* OUTPUT: br_118 
* OUTPUT: bl_119 
* OUTPUT: br_119 
* OUTPUT: bl_120 
* OUTPUT: br_120 
* OUTPUT: bl_121 
* OUTPUT: br_121 
* OUTPUT: bl_122 
* OUTPUT: br_122 
* OUTPUT: bl_123 
* OUTPUT: br_123 
* OUTPUT: bl_124 
* OUTPUT: br_124 
* OUTPUT: bl_125 
* OUTPUT: br_125 
* OUTPUT: bl_126 
* OUTPUT: br_126 
* OUTPUT: bl_127 
* OUTPUT: br_127 
* OUTPUT: bl_128 
* OUTPUT: br_128 
* OUTPUT: bl_129 
* OUTPUT: br_129 
* OUTPUT: bl_130 
* OUTPUT: br_130 
* OUTPUT: bl_131 
* OUTPUT: br_131 
* OUTPUT: bl_132 
* OUTPUT: br_132 
* OUTPUT: bl_133 
* OUTPUT: br_133 
* OUTPUT: bl_134 
* OUTPUT: br_134 
* OUTPUT: bl_135 
* OUTPUT: br_135 
* OUTPUT: bl_136 
* OUTPUT: br_136 
* OUTPUT: bl_137 
* OUTPUT: br_137 
* OUTPUT: bl_138 
* OUTPUT: br_138 
* OUTPUT: bl_139 
* OUTPUT: br_139 
* OUTPUT: bl_140 
* OUTPUT: br_140 
* OUTPUT: bl_141 
* OUTPUT: br_141 
* OUTPUT: bl_142 
* OUTPUT: br_142 
* OUTPUT: bl_143 
* OUTPUT: br_143 
* OUTPUT: bl_144 
* OUTPUT: br_144 
* OUTPUT: bl_145 
* OUTPUT: br_145 
* OUTPUT: bl_146 
* OUTPUT: br_146 
* OUTPUT: bl_147 
* OUTPUT: br_147 
* OUTPUT: bl_148 
* OUTPUT: br_148 
* OUTPUT: bl_149 
* OUTPUT: br_149 
* OUTPUT: bl_150 
* OUTPUT: br_150 
* OUTPUT: bl_151 
* OUTPUT: br_151 
* OUTPUT: bl_152 
* OUTPUT: br_152 
* OUTPUT: bl_153 
* OUTPUT: br_153 
* OUTPUT: bl_154 
* OUTPUT: br_154 
* OUTPUT: bl_155 
* OUTPUT: br_155 
* OUTPUT: bl_156 
* OUTPUT: br_156 
* OUTPUT: bl_157 
* OUTPUT: br_157 
* OUTPUT: bl_158 
* OUTPUT: br_158 
* OUTPUT: bl_159 
* OUTPUT: br_159 
* OUTPUT: bl_160 
* OUTPUT: br_160 
* OUTPUT: bl_161 
* OUTPUT: br_161 
* OUTPUT: bl_162 
* OUTPUT: br_162 
* OUTPUT: bl_163 
* OUTPUT: br_163 
* OUTPUT: bl_164 
* OUTPUT: br_164 
* OUTPUT: bl_165 
* OUTPUT: br_165 
* OUTPUT: bl_166 
* OUTPUT: br_166 
* OUTPUT: bl_167 
* OUTPUT: br_167 
* OUTPUT: bl_168 
* OUTPUT: br_168 
* OUTPUT: bl_169 
* OUTPUT: br_169 
* OUTPUT: bl_170 
* OUTPUT: br_170 
* OUTPUT: bl_171 
* OUTPUT: br_171 
* OUTPUT: bl_172 
* OUTPUT: br_172 
* OUTPUT: bl_173 
* OUTPUT: br_173 
* OUTPUT: bl_174 
* OUTPUT: br_174 
* OUTPUT: bl_175 
* OUTPUT: br_175 
* OUTPUT: bl_176 
* OUTPUT: br_176 
* OUTPUT: bl_177 
* OUTPUT: br_177 
* OUTPUT: bl_178 
* OUTPUT: br_178 
* OUTPUT: bl_179 
* OUTPUT: br_179 
* OUTPUT: bl_180 
* OUTPUT: br_180 
* OUTPUT: bl_181 
* OUTPUT: br_181 
* OUTPUT: bl_182 
* OUTPUT: br_182 
* OUTPUT: bl_183 
* OUTPUT: br_183 
* OUTPUT: bl_184 
* OUTPUT: br_184 
* OUTPUT: bl_185 
* OUTPUT: br_185 
* OUTPUT: bl_186 
* OUTPUT: br_186 
* OUTPUT: bl_187 
* OUTPUT: br_187 
* OUTPUT: bl_188 
* OUTPUT: br_188 
* OUTPUT: bl_189 
* OUTPUT: br_189 
* OUTPUT: bl_190 
* OUTPUT: br_190 
* OUTPUT: bl_191 
* OUTPUT: br_191 
* OUTPUT: bl_192 
* OUTPUT: br_192 
* OUTPUT: bl_193 
* OUTPUT: br_193 
* OUTPUT: bl_194 
* OUTPUT: br_194 
* OUTPUT: bl_195 
* OUTPUT: br_195 
* OUTPUT: bl_196 
* OUTPUT: br_196 
* OUTPUT: bl_197 
* OUTPUT: br_197 
* OUTPUT: bl_198 
* OUTPUT: br_198 
* OUTPUT: bl_199 
* OUTPUT: br_199 
* OUTPUT: bl_200 
* OUTPUT: br_200 
* OUTPUT: bl_201 
* OUTPUT: br_201 
* OUTPUT: bl_202 
* OUTPUT: br_202 
* OUTPUT: bl_203 
* OUTPUT: br_203 
* OUTPUT: bl_204 
* OUTPUT: br_204 
* OUTPUT: bl_205 
* OUTPUT: br_205 
* OUTPUT: bl_206 
* OUTPUT: br_206 
* OUTPUT: bl_207 
* OUTPUT: br_207 
* OUTPUT: bl_208 
* OUTPUT: br_208 
* OUTPUT: bl_209 
* OUTPUT: br_209 
* OUTPUT: bl_210 
* OUTPUT: br_210 
* OUTPUT: bl_211 
* OUTPUT: br_211 
* OUTPUT: bl_212 
* OUTPUT: br_212 
* OUTPUT: bl_213 
* OUTPUT: br_213 
* OUTPUT: bl_214 
* OUTPUT: br_214 
* OUTPUT: bl_215 
* OUTPUT: br_215 
* OUTPUT: bl_216 
* OUTPUT: br_216 
* OUTPUT: bl_217 
* OUTPUT: br_217 
* OUTPUT: bl_218 
* OUTPUT: br_218 
* OUTPUT: bl_219 
* OUTPUT: br_219 
* OUTPUT: bl_220 
* OUTPUT: br_220 
* OUTPUT: bl_221 
* OUTPUT: br_221 
* OUTPUT: bl_222 
* OUTPUT: br_222 
* OUTPUT: bl_223 
* OUTPUT: br_223 
* OUTPUT: bl_224 
* OUTPUT: br_224 
* OUTPUT: bl_225 
* OUTPUT: br_225 
* OUTPUT: bl_226 
* OUTPUT: br_226 
* OUTPUT: bl_227 
* OUTPUT: br_227 
* OUTPUT: bl_228 
* OUTPUT: br_228 
* OUTPUT: bl_229 
* OUTPUT: br_229 
* OUTPUT: bl_230 
* OUTPUT: br_230 
* OUTPUT: bl_231 
* OUTPUT: br_231 
* OUTPUT: bl_232 
* OUTPUT: br_232 
* OUTPUT: bl_233 
* OUTPUT: br_233 
* OUTPUT: bl_234 
* OUTPUT: br_234 
* OUTPUT: bl_235 
* OUTPUT: br_235 
* OUTPUT: bl_236 
* OUTPUT: br_236 
* OUTPUT: bl_237 
* OUTPUT: br_237 
* OUTPUT: bl_238 
* OUTPUT: br_238 
* OUTPUT: bl_239 
* OUTPUT: br_239 
* OUTPUT: bl_240 
* OUTPUT: br_240 
* OUTPUT: bl_241 
* OUTPUT: br_241 
* OUTPUT: bl_242 
* OUTPUT: br_242 
* OUTPUT: bl_243 
* OUTPUT: br_243 
* OUTPUT: bl_244 
* OUTPUT: br_244 
* OUTPUT: bl_245 
* OUTPUT: br_245 
* OUTPUT: bl_246 
* OUTPUT: br_246 
* OUTPUT: bl_247 
* OUTPUT: br_247 
* OUTPUT: bl_248 
* OUTPUT: br_248 
* OUTPUT: bl_249 
* OUTPUT: br_249 
* OUTPUT: bl_250 
* OUTPUT: br_250 
* OUTPUT: bl_251 
* OUTPUT: br_251 
* OUTPUT: bl_252 
* OUTPUT: br_252 
* OUTPUT: bl_253 
* OUTPUT: br_253 
* OUTPUT: bl_254 
* OUTPUT: br_254 
* OUTPUT: bl_255 
* OUTPUT: br_255 
* OUTPUT: bl_256 
* OUTPUT: br_256 
* INPUT : en_bar 
* POWER : vdd 
* cols: 257 size: 1 bl: bl br: br
Xpre_column_0 bl_0 br_0 en_bar vdd precharge_1
Xpre_column_1 bl_1 br_1 en_bar vdd precharge_1
Xpre_column_2 bl_2 br_2 en_bar vdd precharge_1
Xpre_column_3 bl_3 br_3 en_bar vdd precharge_1
Xpre_column_4 bl_4 br_4 en_bar vdd precharge_1
Xpre_column_5 bl_5 br_5 en_bar vdd precharge_1
Xpre_column_6 bl_6 br_6 en_bar vdd precharge_1
Xpre_column_7 bl_7 br_7 en_bar vdd precharge_1
Xpre_column_8 bl_8 br_8 en_bar vdd precharge_1
Xpre_column_9 bl_9 br_9 en_bar vdd precharge_1
Xpre_column_10 bl_10 br_10 en_bar vdd precharge_1
Xpre_column_11 bl_11 br_11 en_bar vdd precharge_1
Xpre_column_12 bl_12 br_12 en_bar vdd precharge_1
Xpre_column_13 bl_13 br_13 en_bar vdd precharge_1
Xpre_column_14 bl_14 br_14 en_bar vdd precharge_1
Xpre_column_15 bl_15 br_15 en_bar vdd precharge_1
Xpre_column_16 bl_16 br_16 en_bar vdd precharge_1
Xpre_column_17 bl_17 br_17 en_bar vdd precharge_1
Xpre_column_18 bl_18 br_18 en_bar vdd precharge_1
Xpre_column_19 bl_19 br_19 en_bar vdd precharge_1
Xpre_column_20 bl_20 br_20 en_bar vdd precharge_1
Xpre_column_21 bl_21 br_21 en_bar vdd precharge_1
Xpre_column_22 bl_22 br_22 en_bar vdd precharge_1
Xpre_column_23 bl_23 br_23 en_bar vdd precharge_1
Xpre_column_24 bl_24 br_24 en_bar vdd precharge_1
Xpre_column_25 bl_25 br_25 en_bar vdd precharge_1
Xpre_column_26 bl_26 br_26 en_bar vdd precharge_1
Xpre_column_27 bl_27 br_27 en_bar vdd precharge_1
Xpre_column_28 bl_28 br_28 en_bar vdd precharge_1
Xpre_column_29 bl_29 br_29 en_bar vdd precharge_1
Xpre_column_30 bl_30 br_30 en_bar vdd precharge_1
Xpre_column_31 bl_31 br_31 en_bar vdd precharge_1
Xpre_column_32 bl_32 br_32 en_bar vdd precharge_1
Xpre_column_33 bl_33 br_33 en_bar vdd precharge_1
Xpre_column_34 bl_34 br_34 en_bar vdd precharge_1
Xpre_column_35 bl_35 br_35 en_bar vdd precharge_1
Xpre_column_36 bl_36 br_36 en_bar vdd precharge_1
Xpre_column_37 bl_37 br_37 en_bar vdd precharge_1
Xpre_column_38 bl_38 br_38 en_bar vdd precharge_1
Xpre_column_39 bl_39 br_39 en_bar vdd precharge_1
Xpre_column_40 bl_40 br_40 en_bar vdd precharge_1
Xpre_column_41 bl_41 br_41 en_bar vdd precharge_1
Xpre_column_42 bl_42 br_42 en_bar vdd precharge_1
Xpre_column_43 bl_43 br_43 en_bar vdd precharge_1
Xpre_column_44 bl_44 br_44 en_bar vdd precharge_1
Xpre_column_45 bl_45 br_45 en_bar vdd precharge_1
Xpre_column_46 bl_46 br_46 en_bar vdd precharge_1
Xpre_column_47 bl_47 br_47 en_bar vdd precharge_1
Xpre_column_48 bl_48 br_48 en_bar vdd precharge_1
Xpre_column_49 bl_49 br_49 en_bar vdd precharge_1
Xpre_column_50 bl_50 br_50 en_bar vdd precharge_1
Xpre_column_51 bl_51 br_51 en_bar vdd precharge_1
Xpre_column_52 bl_52 br_52 en_bar vdd precharge_1
Xpre_column_53 bl_53 br_53 en_bar vdd precharge_1
Xpre_column_54 bl_54 br_54 en_bar vdd precharge_1
Xpre_column_55 bl_55 br_55 en_bar vdd precharge_1
Xpre_column_56 bl_56 br_56 en_bar vdd precharge_1
Xpre_column_57 bl_57 br_57 en_bar vdd precharge_1
Xpre_column_58 bl_58 br_58 en_bar vdd precharge_1
Xpre_column_59 bl_59 br_59 en_bar vdd precharge_1
Xpre_column_60 bl_60 br_60 en_bar vdd precharge_1
Xpre_column_61 bl_61 br_61 en_bar vdd precharge_1
Xpre_column_62 bl_62 br_62 en_bar vdd precharge_1
Xpre_column_63 bl_63 br_63 en_bar vdd precharge_1
Xpre_column_64 bl_64 br_64 en_bar vdd precharge_1
Xpre_column_65 bl_65 br_65 en_bar vdd precharge_1
Xpre_column_66 bl_66 br_66 en_bar vdd precharge_1
Xpre_column_67 bl_67 br_67 en_bar vdd precharge_1
Xpre_column_68 bl_68 br_68 en_bar vdd precharge_1
Xpre_column_69 bl_69 br_69 en_bar vdd precharge_1
Xpre_column_70 bl_70 br_70 en_bar vdd precharge_1
Xpre_column_71 bl_71 br_71 en_bar vdd precharge_1
Xpre_column_72 bl_72 br_72 en_bar vdd precharge_1
Xpre_column_73 bl_73 br_73 en_bar vdd precharge_1
Xpre_column_74 bl_74 br_74 en_bar vdd precharge_1
Xpre_column_75 bl_75 br_75 en_bar vdd precharge_1
Xpre_column_76 bl_76 br_76 en_bar vdd precharge_1
Xpre_column_77 bl_77 br_77 en_bar vdd precharge_1
Xpre_column_78 bl_78 br_78 en_bar vdd precharge_1
Xpre_column_79 bl_79 br_79 en_bar vdd precharge_1
Xpre_column_80 bl_80 br_80 en_bar vdd precharge_1
Xpre_column_81 bl_81 br_81 en_bar vdd precharge_1
Xpre_column_82 bl_82 br_82 en_bar vdd precharge_1
Xpre_column_83 bl_83 br_83 en_bar vdd precharge_1
Xpre_column_84 bl_84 br_84 en_bar vdd precharge_1
Xpre_column_85 bl_85 br_85 en_bar vdd precharge_1
Xpre_column_86 bl_86 br_86 en_bar vdd precharge_1
Xpre_column_87 bl_87 br_87 en_bar vdd precharge_1
Xpre_column_88 bl_88 br_88 en_bar vdd precharge_1
Xpre_column_89 bl_89 br_89 en_bar vdd precharge_1
Xpre_column_90 bl_90 br_90 en_bar vdd precharge_1
Xpre_column_91 bl_91 br_91 en_bar vdd precharge_1
Xpre_column_92 bl_92 br_92 en_bar vdd precharge_1
Xpre_column_93 bl_93 br_93 en_bar vdd precharge_1
Xpre_column_94 bl_94 br_94 en_bar vdd precharge_1
Xpre_column_95 bl_95 br_95 en_bar vdd precharge_1
Xpre_column_96 bl_96 br_96 en_bar vdd precharge_1
Xpre_column_97 bl_97 br_97 en_bar vdd precharge_1
Xpre_column_98 bl_98 br_98 en_bar vdd precharge_1
Xpre_column_99 bl_99 br_99 en_bar vdd precharge_1
Xpre_column_100 bl_100 br_100 en_bar vdd precharge_1
Xpre_column_101 bl_101 br_101 en_bar vdd precharge_1
Xpre_column_102 bl_102 br_102 en_bar vdd precharge_1
Xpre_column_103 bl_103 br_103 en_bar vdd precharge_1
Xpre_column_104 bl_104 br_104 en_bar vdd precharge_1
Xpre_column_105 bl_105 br_105 en_bar vdd precharge_1
Xpre_column_106 bl_106 br_106 en_bar vdd precharge_1
Xpre_column_107 bl_107 br_107 en_bar vdd precharge_1
Xpre_column_108 bl_108 br_108 en_bar vdd precharge_1
Xpre_column_109 bl_109 br_109 en_bar vdd precharge_1
Xpre_column_110 bl_110 br_110 en_bar vdd precharge_1
Xpre_column_111 bl_111 br_111 en_bar vdd precharge_1
Xpre_column_112 bl_112 br_112 en_bar vdd precharge_1
Xpre_column_113 bl_113 br_113 en_bar vdd precharge_1
Xpre_column_114 bl_114 br_114 en_bar vdd precharge_1
Xpre_column_115 bl_115 br_115 en_bar vdd precharge_1
Xpre_column_116 bl_116 br_116 en_bar vdd precharge_1
Xpre_column_117 bl_117 br_117 en_bar vdd precharge_1
Xpre_column_118 bl_118 br_118 en_bar vdd precharge_1
Xpre_column_119 bl_119 br_119 en_bar vdd precharge_1
Xpre_column_120 bl_120 br_120 en_bar vdd precharge_1
Xpre_column_121 bl_121 br_121 en_bar vdd precharge_1
Xpre_column_122 bl_122 br_122 en_bar vdd precharge_1
Xpre_column_123 bl_123 br_123 en_bar vdd precharge_1
Xpre_column_124 bl_124 br_124 en_bar vdd precharge_1
Xpre_column_125 bl_125 br_125 en_bar vdd precharge_1
Xpre_column_126 bl_126 br_126 en_bar vdd precharge_1
Xpre_column_127 bl_127 br_127 en_bar vdd precharge_1
Xpre_column_128 bl_128 br_128 en_bar vdd precharge_1
Xpre_column_129 bl_129 br_129 en_bar vdd precharge_1
Xpre_column_130 bl_130 br_130 en_bar vdd precharge_1
Xpre_column_131 bl_131 br_131 en_bar vdd precharge_1
Xpre_column_132 bl_132 br_132 en_bar vdd precharge_1
Xpre_column_133 bl_133 br_133 en_bar vdd precharge_1
Xpre_column_134 bl_134 br_134 en_bar vdd precharge_1
Xpre_column_135 bl_135 br_135 en_bar vdd precharge_1
Xpre_column_136 bl_136 br_136 en_bar vdd precharge_1
Xpre_column_137 bl_137 br_137 en_bar vdd precharge_1
Xpre_column_138 bl_138 br_138 en_bar vdd precharge_1
Xpre_column_139 bl_139 br_139 en_bar vdd precharge_1
Xpre_column_140 bl_140 br_140 en_bar vdd precharge_1
Xpre_column_141 bl_141 br_141 en_bar vdd precharge_1
Xpre_column_142 bl_142 br_142 en_bar vdd precharge_1
Xpre_column_143 bl_143 br_143 en_bar vdd precharge_1
Xpre_column_144 bl_144 br_144 en_bar vdd precharge_1
Xpre_column_145 bl_145 br_145 en_bar vdd precharge_1
Xpre_column_146 bl_146 br_146 en_bar vdd precharge_1
Xpre_column_147 bl_147 br_147 en_bar vdd precharge_1
Xpre_column_148 bl_148 br_148 en_bar vdd precharge_1
Xpre_column_149 bl_149 br_149 en_bar vdd precharge_1
Xpre_column_150 bl_150 br_150 en_bar vdd precharge_1
Xpre_column_151 bl_151 br_151 en_bar vdd precharge_1
Xpre_column_152 bl_152 br_152 en_bar vdd precharge_1
Xpre_column_153 bl_153 br_153 en_bar vdd precharge_1
Xpre_column_154 bl_154 br_154 en_bar vdd precharge_1
Xpre_column_155 bl_155 br_155 en_bar vdd precharge_1
Xpre_column_156 bl_156 br_156 en_bar vdd precharge_1
Xpre_column_157 bl_157 br_157 en_bar vdd precharge_1
Xpre_column_158 bl_158 br_158 en_bar vdd precharge_1
Xpre_column_159 bl_159 br_159 en_bar vdd precharge_1
Xpre_column_160 bl_160 br_160 en_bar vdd precharge_1
Xpre_column_161 bl_161 br_161 en_bar vdd precharge_1
Xpre_column_162 bl_162 br_162 en_bar vdd precharge_1
Xpre_column_163 bl_163 br_163 en_bar vdd precharge_1
Xpre_column_164 bl_164 br_164 en_bar vdd precharge_1
Xpre_column_165 bl_165 br_165 en_bar vdd precharge_1
Xpre_column_166 bl_166 br_166 en_bar vdd precharge_1
Xpre_column_167 bl_167 br_167 en_bar vdd precharge_1
Xpre_column_168 bl_168 br_168 en_bar vdd precharge_1
Xpre_column_169 bl_169 br_169 en_bar vdd precharge_1
Xpre_column_170 bl_170 br_170 en_bar vdd precharge_1
Xpre_column_171 bl_171 br_171 en_bar vdd precharge_1
Xpre_column_172 bl_172 br_172 en_bar vdd precharge_1
Xpre_column_173 bl_173 br_173 en_bar vdd precharge_1
Xpre_column_174 bl_174 br_174 en_bar vdd precharge_1
Xpre_column_175 bl_175 br_175 en_bar vdd precharge_1
Xpre_column_176 bl_176 br_176 en_bar vdd precharge_1
Xpre_column_177 bl_177 br_177 en_bar vdd precharge_1
Xpre_column_178 bl_178 br_178 en_bar vdd precharge_1
Xpre_column_179 bl_179 br_179 en_bar vdd precharge_1
Xpre_column_180 bl_180 br_180 en_bar vdd precharge_1
Xpre_column_181 bl_181 br_181 en_bar vdd precharge_1
Xpre_column_182 bl_182 br_182 en_bar vdd precharge_1
Xpre_column_183 bl_183 br_183 en_bar vdd precharge_1
Xpre_column_184 bl_184 br_184 en_bar vdd precharge_1
Xpre_column_185 bl_185 br_185 en_bar vdd precharge_1
Xpre_column_186 bl_186 br_186 en_bar vdd precharge_1
Xpre_column_187 bl_187 br_187 en_bar vdd precharge_1
Xpre_column_188 bl_188 br_188 en_bar vdd precharge_1
Xpre_column_189 bl_189 br_189 en_bar vdd precharge_1
Xpre_column_190 bl_190 br_190 en_bar vdd precharge_1
Xpre_column_191 bl_191 br_191 en_bar vdd precharge_1
Xpre_column_192 bl_192 br_192 en_bar vdd precharge_1
Xpre_column_193 bl_193 br_193 en_bar vdd precharge_1
Xpre_column_194 bl_194 br_194 en_bar vdd precharge_1
Xpre_column_195 bl_195 br_195 en_bar vdd precharge_1
Xpre_column_196 bl_196 br_196 en_bar vdd precharge_1
Xpre_column_197 bl_197 br_197 en_bar vdd precharge_1
Xpre_column_198 bl_198 br_198 en_bar vdd precharge_1
Xpre_column_199 bl_199 br_199 en_bar vdd precharge_1
Xpre_column_200 bl_200 br_200 en_bar vdd precharge_1
Xpre_column_201 bl_201 br_201 en_bar vdd precharge_1
Xpre_column_202 bl_202 br_202 en_bar vdd precharge_1
Xpre_column_203 bl_203 br_203 en_bar vdd precharge_1
Xpre_column_204 bl_204 br_204 en_bar vdd precharge_1
Xpre_column_205 bl_205 br_205 en_bar vdd precharge_1
Xpre_column_206 bl_206 br_206 en_bar vdd precharge_1
Xpre_column_207 bl_207 br_207 en_bar vdd precharge_1
Xpre_column_208 bl_208 br_208 en_bar vdd precharge_1
Xpre_column_209 bl_209 br_209 en_bar vdd precharge_1
Xpre_column_210 bl_210 br_210 en_bar vdd precharge_1
Xpre_column_211 bl_211 br_211 en_bar vdd precharge_1
Xpre_column_212 bl_212 br_212 en_bar vdd precharge_1